Version 4
SHEET 1 1132 680
WIRE 192 -80 -112 -80
WIRE 416 -80 256 -80
WIRE -336 64 -352 64
WIRE -224 64 -256 64
WIRE -112 64 -112 -80
WIRE -112 64 -224 64
WIRE 96 64 -112 64
WIRE 416 64 416 -80
WIRE 416 64 352 64
WIRE 528 64 416 64
WIRE 560 64 528 64
WIRE 832 64 800 64
WIRE 832 96 832 64
WIRE -224 176 -224 64
WIRE -112 176 -112 64
WIRE 416 176 416 64
WIRE 528 176 528 64
WIRE 0 192 0 144
WIRE 80 192 0 192
WIRE 832 208 832 176
WIRE 928 208 832 208
WIRE 992 208 928 208
WIRE 0 224 0 192
WIRE 832 240 832 208
WIRE 80 256 80 192
WIRE 80 256 32 256
WIRE 928 256 928 208
WIRE -224 352 -224 240
WIRE -112 352 -112 240
WIRE -112 352 -224 352
WIRE 0 352 0 288
WIRE 0 352 -112 352
WIRE 224 352 224 160
WIRE 224 352 0 352
WIRE 416 352 416 240
WIRE 416 352 224 352
WIRE 528 352 528 256
WIRE 528 352 416 352
WIRE 560 352 528 352
WIRE 832 352 832 304
WIRE 832 352 800 352
WIRE 928 352 928 336
WIRE 928 352 832 352
WIRE -112 384 -112 352
WIRE -112 480 -112 464
WIRE -112 480 -128 480
FLAG 0 144 0
FLAG 400 272 V-
FLAG -112 480 V-
FLAG -352 64 V+
FLAG 560 64 V5V
IOPIN 560 64 Out
FLAG 560 352 V-GND
IOPIN 560 352 Out
FLAG -512 320 0
FLAG -400 320 0
FLAG -512 240 V+
FLAG -400 240 V-
FLAG 800 64 V5V
IOPIN 800 64 In
FLAG 800 352 V-GND
IOPIN 800 352 In
FLAG 992 208 V3.3
IOPIN 992 208 Out
SYMBOL PowerProducts\\LT1083-5 224 64 R0
SYMATTR InstName U1
SYMBOL References\\LT1009 0 256 R0
SYMATTR InstName U2
SYMBOL polcap -128 176 R0
SYMATTR InstName C1
SYMATTR Value 10u
SYMBOL polcap 400 176 R0
SYMATTR InstName C2
SYMATTR Value 100u
SYMBOL cap -240 176 R0
SYMATTR InstName C3
SYMATTR Value 0.1u
SYMBOL schottky 256 -96 R90
WINDOW 0 0 32 VBottom 2
WINDOW 3 32 32 VTop 2
SYMATTR InstName D1
SYMBOL res -128 368 R0
SYMATTR InstName R1
SYMATTR Value 200
SYMBOL voltage -512 224 R0
WINDOW 123 0 0 Left 2
WINDOW 39 0 0 Left 2
SYMATTR InstName V1
SYMATTR Value 15
SYMBOL voltage -400 224 R0
WINDOW 123 0 0 Left 2
WINDOW 39 0 0 Left 2
SYMATTR InstName V2
SYMATTR Value -15
SYMBOL res 512 160 R0
SYMATTR InstName R2
SYMATTR Value 220
SYMBOL res -240 48 R90
WINDOW 0 0 56 VBottom 2
WINDOW 3 32 56 VTop 2
SYMATTR InstName R3
SYMATTR Value 0.1u
SYMBOL zener 848 304 R180
WINDOW 0 24 64 Left 2
WINDOW 3 24 0 Left 2
SYMATTR InstName D2
SYMATTR Value HZ-3.3L
SYMBOL res 816 80 R0
SYMATTR InstName R4
SYMATTR Value 220
SYMBOL res 912 240 R0
SYMATTR InstName R5
SYMATTR Value 3.3k
TEXT -536 384 Left 2 !.tran 0 200u 100u
TEXT 592 216 Left 2 ;Load 20mA
TEXT 1000 288 Left 2 ;Load 1mA
