Version 4
SHEET 1 1200 680
WIRE 608 -240 448 -240
WIRE 832 -240 672 -240
WIRE -96 -160 -176 -160
WIRE 32 -160 -96 -160
WIRE -176 -144 -176 -160
WIRE -96 -128 -96 -160
WIRE 32 -128 32 -160
WIRE 384 -96 352 -96
WIRE 448 -96 448 -240
WIRE 448 -96 384 -96
WIRE 512 -96 448 -96
WIRE 832 -96 832 -240
WIRE 832 -96 768 -96
WIRE 896 -96 832 -96
WIRE 992 -96 896 -96
WIRE 1072 -96 992 -96
WIRE 384 -64 384 -96
WIRE 448 -64 448 -96
WIRE 832 -64 832 -96
WIRE 896 -64 896 -96
WIRE -96 -48 -96 -64
WIRE 32 -48 32 -64
WIRE 32 -48 -96 -48
WIRE 992 -48 992 -96
WIRE -96 -32 -96 -48
WIRE 32 0 32 -48
WIRE -96 64 -96 48
WIRE -96 64 -160 64
WIRE -16 64 -96 64
WIRE 112 64 80 64
WIRE 384 64 384 0
WIRE 384 64 352 64
WIRE 448 64 448 0
WIRE 448 64 384 64
WIRE 640 64 640 0
WIRE 640 64 448 64
WIRE 832 64 832 0
WIRE 832 64 640 64
WIRE 896 64 896 0
WIRE 896 64 832 64
WIRE 992 64 992 32
WIRE 992 64 896 64
WIRE 448 192 384 192
WIRE 448 224 448 192
WIRE -80 336 -96 336
WIRE 16 336 0 336
WIRE 448 336 448 304
WIRE 544 336 448 336
WIRE 624 336 544 336
WIRE -96 352 -96 336
WIRE 0 352 0 336
WIRE 448 368 448 336
WIRE 544 368 544 336
WIRE 448 480 448 432
WIRE 448 480 384 480
WIRE 544 480 544 448
WIRE 544 480 448 480
FLAG -96 432 0
FLAG 0 432 0
FLAG -96 336 V-
FLAG 0 336 V+
FLAG -176 -144 0
FLAG -160 64 V-
IOPIN -160 64 In
FLAG 112 64 V-GND
IOPIN 112 64 Out
FLAG 352 64 V-GND
IOPIN 352 64 In
FLAG 1072 -96 V5V
IOPIN 1072 -96 Out
FLAG 384 192 V5V
IOPIN 384 192 In
FLAG 384 480 V-GND
IOPIN 384 480 In
FLAG 624 336 V3.3V
IOPIN 624 336 Out
FLAG 352 -96 V+
IOPIN 352 -96 In
SYMBOL zener -80 -64 R180
WINDOW 0 24 64 Left 2
WINDOW 3 24 0 Left 2
SYMATTR InstName D1
SYMATTR Value HZ-3.3L
SYMBOL voltage -96 336 R0
WINDOW 123 0 0 Left 2
WINDOW 39 0 0 Left 2
SYMATTR InstName V1
SYMATTR Value -15
SYMBOL voltage 0 336 R0
WINDOW 123 0 0 Left 2
WINDOW 39 0 0 Left 2
SYMATTR InstName V2
SYMATTR Value 15
SYMBOL res -112 -48 R0
SYMATTR InstName R1
SYMATTR Value 500
SYMBOL pnp -16 0 M90
SYMATTR InstName Q1
SYMATTR Value 2SA1015-GR
SYMBOL cap 16 -128 R0
SYMATTR InstName C1
SYMATTR Value 0.1u
SYMBOL PowerProducts\\LT1083-5 640 -96 R0
SYMATTR InstName U1
SYMBOL cap 432 -64 R0
SYMATTR InstName C2
SYMATTR Value 0.1u
SYMBOL polcap 368 -64 R0
SYMATTR InstName C3
SYMATTR Value 10u
SYMBOL cap 816 -64 R0
SYMATTR InstName C4
SYMATTR Value 0.1u
SYMBOL polcap 880 -64 R0
SYMATTR InstName C5
SYMATTR Value 47u
SYMBOL schottky 672 -256 R90
WINDOW 0 0 32 VBottom 2
WINDOW 3 32 32 VTop 2
SYMATTR InstName D2
SYMBOL res 432 208 R0
SYMATTR InstName R2
SYMATTR Value 220
SYMBOL zener 464 432 R180
WINDOW 0 24 64 Left 2
WINDOW 3 24 0 Left 2
SYMATTR InstName D3
SYMATTR Value HZ-3.3L
SYMBOL res 528 352 R0
SYMATTR InstName R3
SYMATTR Value 670
SYMBOL res 976 -64 R0
SYMATTR InstName R4
SYMATTR Value 100
TEXT 712 432 Left 2 !.tran 0 200u 100u
