Version 4
SHEET 1 880 680
WIRE -304 0 -320 0
WIRE -48 0 -64 0
WIRE 288 0 272 0
WIRE 544 0 528 0
WIRE -320 16 -320 0
WIRE -64 16 -64 0
WIRE 272 16 272 0
WIRE 528 32 528 0
WIRE -64 128 -64 96
WIRE -64 128 -80 128
WIRE 0 128 -64 128
WIRE 64 128 0 128
WIRE 208 128 160 128
WIRE 272 128 272 96
WIRE 272 128 208 128
WIRE 304 128 272 128
WIRE -320 144 -320 96
WIRE -240 144 -320 144
WIRE 528 144 528 112
WIRE 528 144 464 144
WIRE 112 208 112 192
WIRE -368 272 -384 272
WIRE -240 272 -256 272
WIRE -112 272 -128 272
WIRE -384 288 -384 272
WIRE -256 288 -256 272
WIRE -128 288 -128 272
WIRE 112 304 112 288
WIRE 112 304 96 304
FLAG -128 272 CLOCK
FLAG -128 368 0
FLAG -320 144 CLOCK
FLAG -240 112 0
FLAG -256 368 0
FLAG -256 272 +5V
FLAG -64 0 +3.3V
FLAG -384 272 +3.3V
FLAG -320 0 +3.3V
FLAG -384 368 0
FLAG 112 304 +3.3V
FLAG 272 0 +5V
FLAG 464 112 0
FLAG 528 0 +5V
FLAG 0 128 3.3V_Line
FLAG 208 128 5V_Line
SYMBOL Digital\\74hc125 -160 64 R0
SYMATTR InstName U1
SYMBOL voltage -128 272 R0
WINDOW 123 0 0 Left 2
WINDOW 39 0 0 Left 2
SYMATTR InstName V1
SYMATTR Value PULSE(0V 5V 0 1p 1p 5us 10us)
SYMBOL voltage -256 272 R0
WINDOW 123 0 0 Left 2
WINDOW 39 0 0 Left 2
SYMATTR InstName V2
SYMATTR Value 5V
SYMBOL res -80 0 R0
SYMATTR InstName R2
SYMATTR Value 1k
SYMBOL res -336 0 R0
SYMATTR InstName R1
SYMATTR Value 10k
SYMBOL voltage -384 272 R0
WINDOW 123 0 0 Left 2
WINDOW 39 0 0 Left 2
SYMATTR InstName V3
SYMATTR Value 3.3V
SYMBOL npn 160 192 M270
SYMATTR InstName Q1
SYMATTR Value 2SC1815-Y
SYMBOL res 96 192 R0
SYMATTR InstName R3
SYMATTR Value 470
SYMBOL Digital\\74hc125 384 64 M0
SYMATTR InstName U2
SYMBOL res 256 0 R0
SYMATTR InstName R4
SYMATTR Value 1k
SYMBOL res 512 16 R0
SYMATTR InstName R5
SYMATTR Value 10k
TEXT 336 336 Left 2 !.include mylib\\74hc.lib
TEXT 336 360 Left 2 !.tran 0 150us 100us
