Version 4
SHEET 1 880 680
WIRE -416 -256 -560 -256
WIRE -416 -224 -416 -256
WIRE 272 -224 160 -224
WIRE -560 -176 -560 -256
WIRE -416 -128 -416 -144
WIRE -336 -128 -416 -128
WIRE 160 -128 160 -224
WIRE -416 -112 -416 -128
WIRE -16 -80 -128 -80
WIRE -128 -48 -128 -80
WIRE -16 -48 -16 -80
WIRE 32 -16 16 -16
WIRE -560 32 -560 -96
WIRE -416 32 -416 -32
WIRE -416 32 -560 32
WIRE -320 32 -416 32
WIRE -16 48 -16 16
WIRE 32 48 32 -16
WIRE 32 48 -16 48
WIRE 160 48 160 -48
WIRE 160 48 32 48
WIRE 272 48 160 48
WIRE -320 64 -320 32
WIRE -16 80 -16 48
WIRE -416 96 -416 32
WIRE -560 144 -560 32
WIRE -416 192 -416 176
WIRE -336 192 -416 192
WIRE -16 192 -16 160
WIRE -16 192 -64 192
WIRE -416 208 -416 192
WIRE 304 240 192 240
WIRE 304 256 304 240
WIRE -560 320 -560 224
WIRE -416 320 -416 288
WIRE -416 320 -560 320
WIRE 304 352 304 336
WIRE 304 352 192 352
FLAG -560 -256 V+
FLAG -560 320 V-
FLAG -320 64 0
FLAG -336 -128 Measure+
IOPIN -336 -128 Out
FLAG -336 192 Measure-
IOPIN -336 192 Out
FLAG -128 -48 0
FLAG -64 192 V-
FLAG 272 -224 +5V
IOPIN 272 -224 Out
FLAG 272 48 V-GND
IOPIN 272 48 Out
FLAG 192 240 +5V
IOPIN 192 240 In
FLAG 192 352 V-GND
IOPIN 192 352 In
SYMBOL voltage -560 -192 R0
WINDOW 123 0 0 Left 2
WINDOW 39 0 0 Left 2
SYMATTR InstName V1
SYMATTR Value 9
SYMBOL voltage -560 128 R0
WINDOW 123 0 0 Left 2
WINDOW 39 0 0 Left 2
SYMATTR InstName V2
SYMATTR Value 9
SYMBOL res -432 -240 R0
SYMATTR InstName R1
SYMATTR Value 30k
SYMBOL res -432 -128 R0
SYMATTR InstName R2
SYMATTR Value 10k
SYMBOL res -432 80 R0
SYMATTR InstName R3
SYMATTR Value 10k
SYMBOL res -432 192 R0
SYMATTR InstName R4
SYMATTR Value 30k
SYMBOL voltage 160 -144 R0
WINDOW 123 0 0 Left 2
WINDOW 39 0 0 Left 2
SYMATTR InstName V3
SYMATTR Value 5V
SYMBOL res -32 64 R0
SYMATTR InstName R9
SYMATTR Value 330
SYMBOL res 288 240 R0
SYMATTR InstName R5
SYMATTR Value 220
SYMBOL References\\LT1009 -16 -16 R0
SYMATTR InstName U1
TEXT -560 392 Left 2 !.dc V2 0 15 0.5 V1 0 15 2
TEXT -560 432 Left 2 !;tran 0.1
