Version 4
SHEET 1 880 680
WIRE 304 -336 128 -336
WIRE 304 -320 304 -336
WIRE -416 -256 -560 -256
WIRE 128 -240 128 -336
WIRE -416 -224 -416 -256
WIRE 304 -208 304 -240
WIRE 432 -208 304 -208
WIRE -560 -176 -560 -256
WIRE 304 -160 304 -208
WIRE -416 -128 -416 -144
WIRE -336 -128 -416 -128
WIRE 368 -128 336 -128
WIRE -416 -112 -416 -128
WIRE 304 -80 304 -96
WIRE 368 -80 368 -128
WIRE 368 -80 304 -80
WIRE 128 -32 128 -160
WIRE 304 -32 304 -80
WIRE -560 32 -560 -96
WIRE -416 32 -416 -32
WIRE -416 32 -560 32
WIRE -320 32 -416 32
WIRE -320 64 -320 32
WIRE 320 80 272 80
WIRE 432 80 400 80
WIRE -416 96 -416 32
WIRE -560 144 -560 32
WIRE 160 176 64 176
WIRE 272 176 272 80
WIRE 272 176 240 176
WIRE 304 176 272 176
WIRE -416 192 -416 176
WIRE -336 192 -416 192
WIRE 432 192 432 80
WIRE 432 192 368 192
WIRE 464 192 432 192
WIRE -416 208 -416 192
WIRE 304 208 272 208
WIRE 272 240 272 208
WIRE 336 240 336 224
WIRE -560 320 -560 224
WIRE -416 320 -416 288
WIRE -416 320 -560 320
WIRE 272 352 272 320
FLAG -560 -256 V+
FLAG -560 320 V-
FLAG -320 64 0
FLAG -336 -128 Measure+
IOPIN -336 -128 Out
FLAG -336 192 Measure-
IOPIN -336 192 Out
FLAG 272 352 0
FLAG 336 160 V+
FLAG 336 240 V-
FLAG 464 192 NegMeasure-
IOPIN 464 192 Out
FLAG 128 -32 0
FLAG 128 -336 +5V
FLAG 304 -32 0
FLAG 432 -208 V-Ref
IOPIN 432 -208 Out
FLAG 64 176 Measure-
IOPIN 64 176 In
SYMBOL voltage -560 -192 R0
WINDOW 123 0 0 Left 2
WINDOW 39 0 0 Left 2
SYMATTR InstName V1
SYMATTR Value 9
SYMBOL voltage -560 128 R0
WINDOW 123 0 0 Left 2
WINDOW 39 0 0 Left 2
SYMATTR InstName V2
SYMATTR Value 9
SYMBOL res -432 -240 R0
SYMATTR InstName R1
SYMATTR Value 30k
SYMBOL res -432 -128 R0
SYMATTR InstName R2
SYMATTR Value 10k
SYMBOL res -432 80 R0
SYMATTR InstName R3
SYMATTR Value 10k
SYMBOL res -432 192 R0
SYMATTR InstName R4
SYMATTR Value 30k
SYMBOL res 256 160 R90
WINDOW 0 0 56 VBottom 2
WINDOW 3 32 56 VTop 2
SYMATTR InstName R5
SYMATTR Value 1Meg
SYMBOL res 416 64 R90
WINDOW 0 0 56 VBottom 2
WINDOW 3 32 56 VTop 2
SYMATTR InstName R6
SYMATTR Value 1Meg
SYMBOL res 256 224 R0
SYMATTR InstName R7
SYMATTR Value 470k
SYMBOL voltage 128 -256 R0
WINDOW 123 0 0 Left 2
WINDOW 39 0 0 Left 2
SYMATTR InstName V3
SYMATTR Value 5V
SYMBOL res 288 -336 R0
SYMATTR InstName R8
SYMATTR Value 330
SYMBOL References\\LT1009 304 -128 R0
SYMATTR InstName U4
SYMBOL Opamps\\TL072 336 128 R0
SYMATTR InstName U1
TEXT -560 392 Left 2 !.dc V2 0 15 1
TEXT -560 424 Left 2 !;tran 0.1
